# AFLOW.org Repositories
# Ag2C4Ca1H4N4O2S4   [MCLC,MCLC1,mS84] (ST  [MCL,MCL,mP84] (STD_CONV doi:10.1016/j.commatsci.2010.05.010)
data_Ag2C4Ca1H4N4O2S4
_pd_phase_name Ag2C4Ca1H4N4O2S4
_cell_length_a  7.8170943150
_cell_length_b  23.1024398085
_cell_length_c  8.1669723027
_cell_angle_alpha  81.9286787941
_cell_angle_beta  90.0000000000
_cell_angle_gamma  90.0000000000
_symmetry_space_group_name_H-M  'P1'
_symmetry_Int_Tables_Number  1
loop_
_symmetry_equiv_pos_site_id
_symmetry_equiv_pos_as_xyz
  1  x,y,z
loop_
 _atom_site_label
 _atom_site_occupancy
 _atom_site_fract_x
 _atom_site_fract_y
 _atom_site_fract_z
 _atom_site_thermal_displace_type
 _atom_site_B_iso_or_equiv
 _atom_site_type_symbol
Ag1 1.0000000000 0.5771045515 0.2098874345 0.2781734329  Biso 1.0 Ag
Ag2 1.0000000000 0.0771045515 0.7098874345 0.2781734329  Biso 1.0 Ag
Ag3 1.0000000000 0.0771045515 0.2901125655 0.2218265671  Biso 1.0 Ag
Ag4 1.0000000000 0.5771045515 0.7901125655 0.2218265671  Biso 1.0 Ag
Ag5 1.0000000000 0.9228954485 0.2901125655 0.7218265671  Biso 1.0 Ag
Ag6 1.0000000000 0.4228954485 0.7901125655 0.7218265671  Biso 1.0 Ag
Ag7 1.0000000000 0.4228954485 0.2098874345 0.7781734329  Biso 1.0 Ag
Ag8 1.0000000000 0.9228954485 0.7098874345 0.7781734329  Biso 1.0 Ag
C9 1.0000000000 0.4462177922 0.3545940488 0.1776863186  Biso 1.0 C
C10 1.0000000000 0.9462177922 0.8545940488 0.1776863186  Biso 1.0 C
C11 1.0000000000 0.9462177922 0.1454059512 0.3223136814  Biso 1.0 C
C12 1.0000000000 0.4462177922 0.6454059512 0.3223136814  Biso 1.0 C
C13 1.0000000000 0.0537822078 0.1454059512 0.8223136814  Biso 1.0 C
C14 1.0000000000 0.5537822078 0.6454059512 0.8223136814  Biso 1.0 C
C15 1.0000000000 0.5537822078 0.3545940488 0.6776863186  Biso 1.0 C
C16 1.0000000000 0.0537822078 0.8545940488 0.6776863186  Biso 1.0 C
C17 1.0000000000 0.4373534320 0.0963430089 0.0852734942  Biso 1.0 C
C18 1.0000000000 0.9373534320 0.5963430089 0.0852734942  Biso 1.0 C
C19 1.0000000000 0.9373534320 0.4036569911 0.4147265058  Biso 1.0 C
C20 1.0000000000 0.4373534320 0.9036569911 0.4147265058  Biso 1.0 C
C21 1.0000000000 0.0626465680 0.4036569911 0.9147265058  Biso 1.0 C
C22 1.0000000000 0.5626465680 0.9036569911 0.9147265058  Biso 1.0 C
C23 1.0000000000 0.5626465680 0.0963430089 0.5852734942  Biso 1.0 C
C24 1.0000000000 0.0626465680 0.5963430089 0.5852734942  Biso 1.0 C
Ca25 1.0000000000 0.0795278473 0.0000000000 0.2500000000  Biso 1.0 Ca
Ca26 1.0000000000 0.5795278473 0.5000000000 0.2500000000  Biso 1.0 Ca
Ca27 1.0000000000 0.9204721527 0.0000000000 0.7500000000  Biso 1.0 Ca
Ca28 1.0000000000 0.4204721527 0.5000000000 0.7500000000  Biso 1.0 Ca
H29 1.0000000000 0.2365396848 0.4937807449 0.0509458827  Biso 1.0 H
H30 1.0000000000 0.7365396848 0.9937807449 0.0509458827  Biso 1.0 H
H31 1.0000000000 0.7365396848 0.0062192551 0.4490541173  Biso 1.0 H
H32 1.0000000000 0.2365396848 0.5062192551 0.4490541173  Biso 1.0 H
H33 1.0000000000 0.2634603152 0.0062192551 0.9490541173  Biso 1.0 H
H34 1.0000000000 0.7634603152 0.5062192551 0.9490541173  Biso 1.0 H
H35 1.0000000000 0.7634603152 0.4937807449 0.5509458827  Biso 1.0 H
H36 1.0000000000 0.2634603152 0.9937807449 0.5509458827  Biso 1.0 H
H37 1.0000000000 0.7788324426 0.0609023247 0.0424289770  Biso 1.0 H
H38 1.0000000000 0.2788324426 0.5609023247 0.0424289770  Biso 1.0 H
H39 1.0000000000 0.2788324426 0.4390976753 0.4575710230  Biso 1.0 H
H40 1.0000000000 0.7788324426 0.9390976753 0.4575710230  Biso 1.0 H
H41 1.0000000000 0.7211675574 0.4390976753 0.9575710230  Biso 1.0 H
H42 1.0000000000 0.2211675574 0.9390976753 0.9575710230  Biso 1.0 H
H43 1.0000000000 0.2211675574 0.0609023247 0.5424289770  Biso 1.0 H
H44 1.0000000000 0.7211675574 0.5609023247 0.5424289770  Biso 1.0 H
N45 1.0000000000 0.4822522776 0.4006521232 0.2141915512  Biso 1.0 N
N46 1.0000000000 0.9822522776 0.9006521232 0.2141915512  Biso 1.0 N
N47 1.0000000000 0.9822522776 0.0993478768 0.2858084488  Biso 1.0 N
N48 1.0000000000 0.4822522776 0.5993478768 0.2858084488  Biso 1.0 N
N49 1.0000000000 0.0177477224 0.0993478768 0.7858084488  Biso 1.0 N
N50 1.0000000000 0.5177477224 0.5993478768 0.7858084488  Biso 1.0 N
N51 1.0000000000 0.5177477224 0.4006521232 0.7141915512  Biso 1.0 N
N52 1.0000000000 0.0177477224 0.9006521232 0.7141915512  Biso 1.0 N
N53 1.0000000000 0.3309589150 0.0611353123 0.1287803355  Biso 1.0 N
N54 1.0000000000 0.8309589150 0.5611353123 0.1287803355  Biso 1.0 N
N55 1.0000000000 0.8309589150 0.4388646877 0.3712196645  Biso 1.0 N
N56 1.0000000000 0.3309589150 0.9388646877 0.3712196645  Biso 1.0 N
N57 1.0000000000 0.1690410850 0.4388646877 0.8712196645  Biso 1.0 N
N58 1.0000000000 0.6690410850 0.9388646877 0.8712196645  Biso 1.0 N
N59 1.0000000000 0.6690410850 0.0611353123 0.6287803355  Biso 1.0 N
N60 1.0000000000 0.1690410850 0.5611353123 0.6287803355  Biso 1.0 N
O61 1.0000000000 0.8311147531 0.0217586581 0.0490182333  Biso 1.0 O
O62 1.0000000000 0.3311147531 0.5217586581 0.0490182333  Biso 1.0 O
O63 1.0000000000 0.3311147531 0.4782413419 0.4509817667  Biso 1.0 O
O64 1.0000000000 0.8311147531 0.9782413419 0.4509817667  Biso 1.0 O
O65 1.0000000000 0.6688852469 0.4782413419 0.9509817667  Biso 1.0 O
O66 1.0000000000 0.1688852469 0.9782413419 0.9509817667  Biso 1.0 O
O67 1.0000000000 0.1688852469 0.0217586581 0.5490182333  Biso 1.0 O
O68 1.0000000000 0.6688852469 0.5217586581 0.5490182333  Biso 1.0 O
S69 1.0000000000 0.3923616201 0.2914317854 0.1199469291  Biso 1.0 S
S70 1.0000000000 0.8923616201 0.7914317854 0.1199469291  Biso 1.0 S
S71 1.0000000000 0.8923616201 0.2085682146 0.3800530709  Biso 1.0 S
S72 1.0000000000 0.3923616201 0.7085682146 0.3800530709  Biso 1.0 S
S73 1.0000000000 0.1076383799 0.2085682146 0.8800530709  Biso 1.0 S
S74 1.0000000000 0.6076383799 0.7085682146 0.8800530709  Biso 1.0 S
S75 1.0000000000 0.6076383799 0.2914317854 0.6199469291  Biso 1.0 S
S76 1.0000000000 0.1076383799 0.7914317854 0.6199469291  Biso 1.0 S
S77 1.0000000000 0.5896456781 0.1436459437 0.0247439814  Biso 1.0 S
S78 1.0000000000 0.0896456781 0.6436459437 0.0247439814  Biso 1.0 S
S79 1.0000000000 0.0896456781 0.3563540563 0.4752560186  Biso 1.0 S
S80 1.0000000000 0.5896456781 0.8563540563 0.4752560186  Biso 1.0 S
S81 1.0000000000 0.9103543219 0.3563540563 0.9752560186  Biso 1.0 S
S82 1.0000000000 0.4103543219 0.8563540563 0.9752560186  Biso 1.0 S
S83 1.0000000000 0.4103543219 0.1436459437 0.5247439814  Biso 1.0 S
S84 1.0000000000 0.9103543219 0.6436459437 0.5247439814  Biso 1.0 S

